*NODE, NSET=NALL
    1, 0.0000000000e+00, 0.0000000000e+00, 1.0000000000e+01
    2, 0.0000000000e+00, 0.0000000000e+00, 0.0000000000e+00
    3, 0.0000000000e+00, 1.0000000000e+01, 1.0000000000e+01
    4, 0.0000000000e+00, 1.0000000000e+01, 0.0000000000e+00
    5, 4.0000000000e+01, 0.0000000000e+00, 1.0000000000e+01
    6, 4.0000000000e+01, 0.0000000000e+00, 0.0000000000e+00
    7, 4.0000000000e+01, 1.0000000000e+01, 1.0000000000e+01
    8, 4.0000000000e+01, 1.0000000000e+01, 0.0000000000e+00
    9, 1.0000000000e+01, 0.0000000000e+00, 0.0000000000e+00
    10, 2.0000000000e+01, 0.0000000000e+00, 0.0000000000e+00
    11, 3.0000000000e+01, 0.0000000000e+00, 0.0000000000e+00
    12, 1.0000000000e+01, 0.0000000000e+00, 1.0000000000e+01
    13, 2.0000000000e+01, 0.0000000000e+00, 1.0000000000e+01
    14, 3.0000000000e+01, 0.0000000000e+00, 1.0000000000e+01
    15, 1.0000000000e+01, 1.0000000000e+01, 0.0000000000e+00
    16, 2.0000000000e+01, 1.0000000000e+01, 0.0000000000e+00
    17, 3.0000000000e+01, 1.0000000000e+01, 0.0000000000e+00
    18, 1.0000000000e+01, 1.0000000000e+01, 1.0000000000e+01
    19, 2.0000000000e+01, 1.0000000000e+01, 1.0000000000e+01
    20, 3.0000000000e+01, 1.0000000000e+01, 1.0000000000e+01
*ELEMENT, TYPE=C3D8, ELSET=EALL
    1, 1, 2, 4, 3, 12, 9, 15, 18, 
    2, 12, 9, 15, 18, 13, 10, 16, 19, 
    3, 13, 10, 16, 19, 14, 11, 17, 20, 
    4, 14, 11, 17, 20, 5, 6, 8, 7, 
*NSET, NSET=Fixed
    3, 2, 4, 1, 
*NSET, NSET=Load
    6, 8, 5, 7,
*MATERIAL,NAME=STEEL
*ELASTIC
210000,0.3
*SOLID SECTION, ELSET=EALL, MATERIAL=STEEL
1
*STEP
*STATIC
0, 1
*BOUNDARY
Fixed, 1, 3
*CLOAD
Load, 2, -1.0
*NODE FILE
U
*END STEP
